/batch
/config,noeldb,1     ! force off writing results to database
*get,_wallstrt,active,,time,wall
! ANSYS input file written by Workbench version 16.0 RELEASE
! File used for geometry attach: C:\Users\brz021\AppData\Local\Temp\WB_WIN-I6KADFM1D4I_brz021_2128_2\unsaved_project_files\dp0\SYS\DM\SYS.agdb
/title,unsaved_project--Static Structural (A5)
*DIM,_wb_ProjectScratch_dir,string,248
_wb_ProjectScratch_dir(1) = 'C:\Users\brz021\AppData\Local\Temp\WB_WIN-I6KADFM1D4I_brz021_2128_2\unsaved_project_files\dp0\SYS\MECH\'
*DIM,_wb_SolverFiles_dir,string,248
_wb_SolverFiles_dir(1) = 'C:\Users\brz021\AppData\Local\Temp\WB_WIN-I6KADFM1D4I_brz021_2128_2\unsaved_project_files\dp0\SYS\MECH\'
*DIM,_wb_userfiles_dir,string,248
_wb_userfiles_dir(1) = 'C:\Users\brz021\AppData\Local\Temp\WB_WIN-I6KADFM1D4I_brz021_2128_2\unsaved_project_files\user_files\'
/com,--- Data in consistent MKS units. See Solving Units in the help system for more information.
/units,MKS
/nopr
/wb,file,start              !  signify a WB generated input file
/prep7
! Turn off shape checking because checks already performed inside WB mesher.
! See help system for more information.
SHPP,OFF,,NOWARN
/nolist
etcon,set             ! allow ANSYS to choose best KEYOP's for 180x elements
/com,*********** Nodes for the whole assembly ***********
nblock,3
(1i9,3e20.9e3)
        1    1.719048709E+001    1.155772424E+000    1.000000000E+000
        2    1.719048709E+001    1.155772424E+000    2.000000000E+000
        3    1.719048709E+001    1.155772424E+000    3.000000000E+000
        4    1.596259516E+001    1.155772424E+000    1.000000000E+000
        5    1.596259516E+001    1.155772424E+000    2.000000000E+000
        6    1.596259516E+001    1.155772424E+000    3.000000000E+000
        7    1.473470322E+001    1.155772424E+000    1.000000000E+000
        8    1.473470322E+001    1.155772424E+000    2.000000000E+000
        9    1.473470322E+001    1.155772424E+000    3.000000000E+000
       10    1.350681129E+001    1.155772424E+000    1.000000000E+000
       11    1.350681129E+001    1.155772424E+000    2.000000000E+000
       12    1.350681129E+001    1.155772424E+000    3.000000000E+000
       13    1.227891935E+001    1.155772424E+000    1.000000000E+000
       14    1.227891935E+001    1.155772424E+000    2.000000000E+000
       15    1.227891935E+001    1.155772424E+000    3.000000000E+000
       16    1.105102742E+001    1.155772424E+000    1.000000000E+000
       17    1.105102742E+001    1.155772424E+000    2.000000000E+000
       18    1.105102742E+001    1.155772424E+000    3.000000000E+000
       19    9.823135481E+000    1.155772424E+000    1.000000000E+000
       20    9.823135481E+000    1.155772424E+000    2.000000000E+000
! ... 4386 like lines cut
/wb,elem,start            !  set before creation of elements
/com,*********** Elements for Body 1 "Solid" ***********
et,1,186
keyo,1,2,1          ! set full integration on SOLID186
eblock,19,solid,,840
(19i9)
        1        1        1        1        0        0        0        0       20        0        1        1     1101     1086     1029      728     1128     1085     1084
     1206     4210     4112     1205     3492     4208     4206     3491     1204     4252     4207     4111
        1        1        1        1        0        0        0        0       20        0        2        1     1029     1086     1101        2     1043     1087     1114
     1205     4112     4210     1206     1210     4153     4212     1211     1201     4110     4209     4251
        1        1        1        1        0        0        0        0       20        0        3        2     1043     1087     1114        3     1057     1088     1127
     1210     4153     4212     1211     1215     4180     4213     1216     1207     4152     4211     4278
        1        1        1        1        0        0        0        0       20        0        4        3     1057     1088     1127      729      940      939      938
     1215     4180     4213     1216     3496     3941     3939     3495     1214     3944     3942     3940
        1        1        1        1        0        0        0        0       20        0        5        1       43     1100     1101      728      714     1129     1128
     1203     1390     4248     1206     3462     3463     4292     3492     1204     1389     4250     4252
        1        1        1        1        0        0        0        0       20        0        6        1     1101     1100       43        2     1114     1113       44
     1206     4248     1390     1203     1211     4276     1394     1209     1201     4251     4249     1386
        1        1        1        1        0        0        0        0       20        0        7        2     1114     1113       44        3     1127     1126       45
     1211     4276     1394     1209     1216     4291     1398     1213     1207     4278     4277     1391
        1        1        1        1        0        0        0        0       20        0        8        3     1127     1126       45      729      938      937      743
     1216     4291     1398     1213     3495     3937     3538     3494     1214     3940     3938     1397
        1        1        1        1        0        0        0        0       20        0        9       43       85     1099     1100      714      700     1130     1129
     1388     1533     4245     1390     3433     3434     4293     3463     1389     1532     4247     4250
        1        1        1        1        0        0        0        0       20        0       10       43     1100     1099       85       44     1113     1112       86
     1390     4245     1533     1388     1394     4274     1537     1393     1386     4249     4246     1529
! ... 1661 like lines cut
!Material Id = {BCFEDDE9-AAE2-4AD3-B32C-73D909D29D4D}
/wb,elem,end               !  done creating elements
/com,*********** Send User Defined Coordinate System(s) ***********
csys,0
toffst,273.15,  ! Temperature offset from absolute zero
/com,*********** Set Reference Temperature ***********
tref,22.
/wb,mat,start              !  starting to send materials
/com,*********** Send Materials ***********
MP,DENS,1,7850,	! kg m^-3
MP,ALPX,1,1.2e-05,	! C^-1
MP,C,1,434,	! J kg^-1 C^-1
MP,KXX,1,60.5,	! W m^-1 C^-1
MP,RSVX,1,1.7e-07,	! kg m^3 A^-2 s^-3
MP,EX,1,200000000000,	! Pa
MP,NUXY,1,0.3,
MP,MURX,1,10000,

/wb,mat,end                !  done sending materials
!************************* Model Summary ********************
!Solid,	Structural Steel,	matid,	1
!************************* End Model Summary ********************
! get the diagonal of the bounding box. Needed later for other things
*get,_xmin,node,,mnloc,x
*get,_ymin,node,,mnloc,y
*get,_zmin,node,,mnloc,z
*get,_xmax,node,,mxloc,x
*get,_ymax,node,,mxloc,y
*get,_zmax,node,,mxloc,z
_ASMDIAG=(_xmax-_xmin)*(_xmax-_xmin)+(_ymax-_ymin)*(_ymax-_ymin)+(_zmax-_zmin)*(_zmax-_zmin)
_ASMDIAG=SQRT(_ASMDIAG)
/wb,contact,start          !  starting to send contact
/wb,contact,end            !  done creating contacts
/golist
/wb,load,start             !  starting to send loads
/com,*********** Fixed Supports ***********
CMBLOCK,_FIXEDSU,NODE,      219
(8i10)
       911       912       913       914       915       916       917       918
       919       920       921       922       923       924       925       968
      1021      1022      1023      1024      1141      1142      1143      1144
      1145      1146      1147      1148      1149      1150      1151      1152
      1153      1154      1155      1156      1157      1158      1159      1160
      1161      1162      1163      1164      1165      1166      1167      1168
      1169      1170      1171      1172      1173      1174      1175      1176
      1177      1178      1179      1180      1181      1182      1183      1184
      1185      1186      1187      1188      1189      1190      1191      1192
      1193      1194      1195      1196      1197      1198      1199      1200
      3884      3885      3886      3887      3888      3889      3890      3891
      3892      3893      3894      3895      3896      3897      3898      3899
      3900      3901      3902      3903      3904      3905      3906      3907
      3908      3909      3910      3911      3912      3914      3999      4095
      4096      4097      4098      4099      4100      4101      4305      4306
      4307      4308      4309      4310      4311      4312      4313      4314
      4315      4316      4317      4318      4319      4320      4321      4322
      4323      4324      4325      4326      4327      4328      4329      4330
      4331      4332      4333      4334      4335      4336      4337      4338
      4339      4340      4341      4342      4343      4344      4345      4346
! ... 8 like lines cut
cmsel,s,_FIXEDSU
d,all,all
nsel,all
nsel,all
/com,*********** Define Force Using Surface Effect Elements ***********
local,12,0,0.,0.,0.,-0.,0.,0.
csys,0
et,2,156
keyop,2,5,1   ! No orientation node
eblock,10,,,15
(15i9)
      841        2        2        2       12      940      939     3941
      842        2        2        2       12      941      940     3943
      843        2        2        2       12      942      941     3945
      844        2        2        2       12      943      942     3947
      845        2        2        2       12      944      943     3949
      846        2        2        2       12      945      944     3951
      847        2        2        2       12      946      945     3953
      848        2        2        2       12      947      946     3955
      849        2        2        2       12      948      947     3957
      850        2        2        2       12      949      948     3959
      851        2        2        2       12      950      949     3961
      852        2        2        2       12      951      950     3963
      853        2        2        2       12      952      951     3965
      854        2        2        2       12      953      952     3967
      855        2        2        2       12      954      953     3969
-1
esel,s,type,,2
keyop,2,2,1                ! Apply load in local coordinate system
keyop,2,7,1                ! Use original area so load is constant in large deformation
esel,all

*DIM,_loadvari27x,TABLE,2,1,1,TIME,
! Time values
_loadvari27x(1,0,1) = 0.
_loadvari27x(2,0,1) = 1.
! Load values
_loadvari27x(1,1,1) = 0.
_loadvari27x(2,1,1) = 0.


*DIM,_loadvari27y,TABLE,2,1,1,TIME,
! Time values
_loadvari27y(1,0,1) = 0.
_loadvari27y(2,0,1) = 1.
! Load values
_loadvari27y(1,1,1) = 0.
_loadvari27y(2,1,1) = 0.


*DIM,_loadvari27z,TABLE,2,1,1,TIME,
! Time values
_loadvari27z(1,0,1) = 0.
_loadvari27z(2,0,1) = 1.
! Load values
_loadvari27z(1,1,1) = 0.
_loadvari27z(2,1,1) = 5.4293594377369e-002

/gst,on,on
fini
*get,_numnode,node,0,count
*get,_numelem,elem,0,count
*get, _MAXELEMNUM, elem, 0, NUM, MAX
*get, _MAXNODENUM, node, 0, NUM, MAX
*get, _MAXELEMTYPE, etyp, 0, NUM, MAX
*get, _MAXREALCONST, real, 0, NUM, MAX
/go
/wb,load,end               !  done creating loads
/com,--- Number of total nodes = %_numnode%
/com,--- Number of contact elements = 15
/com,--- Number of spring elements = 0
/com,--- Number of bearing elements = 0
/com,--- Number of solid elements = 840
/com,--- Number of total elements = %_numelem%
*get,_wallbsol,active,,time,wall
/com,****************************************************************************
/com,*************************    SOLUTION       ********************************
/com,****************************************************************************
/solu
antype,0                   ! static analysis
eqsl,pcg,1e-8,,,,,,1
cntr,print,1               ! print out contact info and also make no initial contact an error
nldiag,cont,iter           ! print out contact info each equilibrium iteration
resc,,none                 ! Do not keep any restart files
/com,****************************************************
/com,******************* SOLVE FOR LS 1 ****************
esel,s,type,,2
nsle
sfe,all,1,pres,1,%_loadvari27x%
sfe,all,2,pres,1,%_loadvari27y%
sfe,all,3,pres,1,%_loadvari27z%
nsel,all
esel,all
/nopr
/gopr
nsub,1,1,1
time,1.
outres,erase
outres,all,none
outres,nsol,all
outres,rsol,all
outres,strs,all
outres,epel,all
outres,eppl,all
stabilize,off                   ! Stabilization turned OFF by user
! *********** WB SOLVE COMMAND ***********
! check interactive state
*get,ANSINTER_,active,,int
*if,ANSINTER_,ne,0,then
/eof
*endif
solve
/com *************** Write FE CONNECTORS ********* 
CEWRITE,file,ce,,INTE
/com,****************************************************
/com,*************** FINISHED SOLVE FOR LS 1 *************
*set,_DS_PROGRESS          ! turn off progress updates to avoid virus scanning bug
*get,_wallasol,active,,time,wall
/nopr
*get,_numnode,node,0,count
*get,_numelem,elem,0,count
*get, _MAXELEMNUM, elem, 0, NUM, MAX
*get, _MAXNODENUM, node, 0, NUM, MAX,,,INTERNAL
*get, _MAXELEMTYPE, etyp, 0, NUM, MAX
*get, _MAXREALCONST, real, 0, NUM, MAX
/gopr
*get,_PCGITER,active,,solu,cgiter
/post1
xmlo,ENCODING,ISO-8859-1
xmlo,parm
/xml,parm,xml
fini
/gopr
*get,_walldone,active,,time,wall
_preptime=(_wallbsol-_wallstrt)*3600
_solvtime=(_wallasol-_wallbsol)*3600
_posttime=(_walldone-_wallasol)*3600
_totaltim=(_walldone-_wallstrt)*3600
/wb,file,end               ! done with WB generated input
